
---------- Begin Simulation Statistics ----------
sim_seconds                                  0.003833                       # Number of seconds simulated
sim_ticks                                  3832884000                       # Number of ticks simulated
final_tick                                 3832884000                       # Number of ticks from beginning of simulation (restored from checkpoints and never reset)
sim_freq                                 1000000000000                       # Frequency of simulated ticks
host_inst_rate                                 138675                       # Simulator instruction rate (inst/s)
host_op_rate                                   182553                       # Simulator op (including micro ops) rate (op/s)
host_tick_rate                               41175708                       # Simulator tick rate (ticks/s)
host_mem_usage                                 666316                       # Number of bytes of host memory used
host_seconds                                    93.09                       # Real time elapsed on the host
sim_insts                                    12908748                       # Number of instructions simulated
sim_ops                                      16993136                       # Number of ops (including micro ops) simulated
system.voltage_domain.voltage                       1                       # Voltage in Volts
system.clk_domain.clock                          1000                       # Clock period in ticks
system.mem_ctrls.pwrStateResidencyTicks::UNDEFINED   3832884000                       # Cumulative time (in ticks) in various power states
system.mem_ctrls.bytes_read::cpu.inst           89536                       # Number of bytes read from this memory
system.mem_ctrls.bytes_read::cpu.data          161408                       # Number of bytes read from this memory
system.mem_ctrls.bytes_read::total             250944                       # Number of bytes read from this memory
system.mem_ctrls.bytes_inst_read::cpu.inst        89536                       # Number of instructions bytes read from this memory
system.mem_ctrls.bytes_inst_read::total         89536                       # Number of instructions bytes read from this memory
system.mem_ctrls.num_reads::cpu.inst             1399                       # Number of read requests responded to by this memory
system.mem_ctrls.num_reads::cpu.data             2522                       # Number of read requests responded to by this memory
system.mem_ctrls.num_reads::total                3921                       # Number of read requests responded to by this memory
system.mem_ctrls.bw_read::cpu.inst           23359956                       # Total read bandwidth from this memory (bytes/s)
system.mem_ctrls.bw_read::cpu.data           42111371                       # Total read bandwidth from this memory (bytes/s)
system.mem_ctrls.bw_read::total              65471327                       # Total read bandwidth from this memory (bytes/s)
system.mem_ctrls.bw_inst_read::cpu.inst      23359956                       # Instruction read bandwidth from this memory (bytes/s)
system.mem_ctrls.bw_inst_read::total         23359956                       # Instruction read bandwidth from this memory (bytes/s)
system.mem_ctrls.bw_total::cpu.inst          23359956                       # Total bandwidth to/from this memory (bytes/s)
system.mem_ctrls.bw_total::cpu.data          42111371                       # Total bandwidth to/from this memory (bytes/s)
system.mem_ctrls.bw_total::total             65471327                       # Total bandwidth to/from this memory (bytes/s)
system.mem_ctrls.readReqs                        3921                       # Number of read requests accepted
system.mem_ctrls.writeReqs                          0                       # Number of write requests accepted
system.mem_ctrls.readBursts                      3921                       # Number of DRAM read bursts, including those serviced by the write queue
system.mem_ctrls.writeBursts                        0                       # Number of DRAM write bursts, including those merged in the write queue
system.mem_ctrls.bytesReadDRAM                 250944                       # Total number of bytes read from DRAM
system.mem_ctrls.bytesReadWrQ                       0                       # Total number of bytes read from write queue
system.mem_ctrls.bytesWritten                       0                       # Total number of bytes written to DRAM
system.mem_ctrls.bytesReadSys                  250944                       # Total read bytes from the system interface side
system.mem_ctrls.bytesWrittenSys                    0                       # Total written bytes from the system interface side
system.mem_ctrls.servicedByWrQ                      0                       # Number of DRAM read bursts serviced by the write queue
system.mem_ctrls.mergedWrBursts                     0                       # Number of DRAM write bursts merged with an existing one
system.mem_ctrls.neitherReadNorWriteReqs            0                       # Number of requests that are neither read nor write
system.mem_ctrls.perBankRdBursts::0               293                       # Per bank write bursts
system.mem_ctrls.perBankRdBursts::1               203                       # Per bank write bursts
system.mem_ctrls.perBankRdBursts::2               254                       # Per bank write bursts
system.mem_ctrls.perBankRdBursts::3               237                       # Per bank write bursts
system.mem_ctrls.perBankRdBursts::4               258                       # Per bank write bursts
system.mem_ctrls.perBankRdBursts::5               308                       # Per bank write bursts
system.mem_ctrls.perBankRdBursts::6               266                       # Per bank write bursts
system.mem_ctrls.perBankRdBursts::7               242                       # Per bank write bursts
system.mem_ctrls.perBankRdBursts::8               301                       # Per bank write bursts
system.mem_ctrls.perBankRdBursts::9               413                       # Per bank write bursts
system.mem_ctrls.perBankRdBursts::10              278                       # Per bank write bursts
system.mem_ctrls.perBankRdBursts::11               77                       # Per bank write bursts
system.mem_ctrls.perBankRdBursts::12               93                       # Per bank write bursts
system.mem_ctrls.perBankRdBursts::13              106                       # Per bank write bursts
system.mem_ctrls.perBankRdBursts::14              279                       # Per bank write bursts
system.mem_ctrls.perBankRdBursts::15              313                       # Per bank write bursts
system.mem_ctrls.perBankWrBursts::0                 0                       # Per bank write bursts
system.mem_ctrls.perBankWrBursts::1                 0                       # Per bank write bursts
system.mem_ctrls.perBankWrBursts::2                 0                       # Per bank write bursts
system.mem_ctrls.perBankWrBursts::3                 0                       # Per bank write bursts
system.mem_ctrls.perBankWrBursts::4                 0                       # Per bank write bursts
system.mem_ctrls.perBankWrBursts::5                 0                       # Per bank write bursts
system.mem_ctrls.perBankWrBursts::6                 0                       # Per bank write bursts
system.mem_ctrls.perBankWrBursts::7                 0                       # Per bank write bursts
system.mem_ctrls.perBankWrBursts::8                 0                       # Per bank write bursts
system.mem_ctrls.perBankWrBursts::9                 0                       # Per bank write bursts
system.mem_ctrls.perBankWrBursts::10                0                       # Per bank write bursts
system.mem_ctrls.perBankWrBursts::11                0                       # Per bank write bursts
system.mem_ctrls.perBankWrBursts::12                0                       # Per bank write bursts
system.mem_ctrls.perBankWrBursts::13                0                       # Per bank write bursts
system.mem_ctrls.perBankWrBursts::14                0                       # Per bank write bursts
system.mem_ctrls.perBankWrBursts::15                0                       # Per bank write bursts
system.mem_ctrls.numRdRetry                         0                       # Number of times read queue was full causing retry
system.mem_ctrls.numWrRetry                         0                       # Number of times write queue was full causing retry
system.mem_ctrls.totGap                    3832800500                       # Total gap between requests
system.mem_ctrls.readPktSize::0                     0                       # Read request sizes (log2)
system.mem_ctrls.readPktSize::1                     0                       # Read request sizes (log2)
system.mem_ctrls.readPktSize::2                     0                       # Read request sizes (log2)
system.mem_ctrls.readPktSize::3                     0                       # Read request sizes (log2)
system.mem_ctrls.readPktSize::4                     0                       # Read request sizes (log2)
system.mem_ctrls.readPktSize::5                     0                       # Read request sizes (log2)
system.mem_ctrls.readPktSize::6                  3921                       # Read request sizes (log2)
system.mem_ctrls.writePktSize::0                    0                       # Write request sizes (log2)
system.mem_ctrls.writePktSize::1                    0                       # Write request sizes (log2)
system.mem_ctrls.writePktSize::2                    0                       # Write request sizes (log2)
system.mem_ctrls.writePktSize::3                    0                       # Write request sizes (log2)
system.mem_ctrls.writePktSize::4                    0                       # Write request sizes (log2)
system.mem_ctrls.writePktSize::5                    0                       # Write request sizes (log2)
system.mem_ctrls.writePktSize::6                    0                       # Write request sizes (log2)
system.mem_ctrls.rdQLenPdf::0                    2407                       # What read queue length does an incoming req see
system.mem_ctrls.rdQLenPdf::1                    1067                       # What read queue length does an incoming req see
system.mem_ctrls.rdQLenPdf::2                     351                       # What read queue length does an incoming req see
system.mem_ctrls.rdQLenPdf::3                      90                       # What read queue length does an incoming req see
system.mem_ctrls.rdQLenPdf::4                       6                       # What read queue length does an incoming req see
system.mem_ctrls.rdQLenPdf::5                       0                       # What read queue length does an incoming req see
system.mem_ctrls.rdQLenPdf::6                       0                       # What read queue length does an incoming req see
system.mem_ctrls.rdQLenPdf::7                       0                       # What read queue length does an incoming req see
system.mem_ctrls.rdQLenPdf::8                       0                       # What read queue length does an incoming req see
system.mem_ctrls.rdQLenPdf::9                       0                       # What read queue length does an incoming req see
system.mem_ctrls.rdQLenPdf::10                      0                       # What read queue length does an incoming req see
system.mem_ctrls.rdQLenPdf::11                      0                       # What read queue length does an incoming req see
system.mem_ctrls.rdQLenPdf::12                      0                       # What read queue length does an incoming req see
system.mem_ctrls.rdQLenPdf::13                      0                       # What read queue length does an incoming req see
system.mem_ctrls.rdQLenPdf::14                      0                       # What read queue length does an incoming req see
system.mem_ctrls.rdQLenPdf::15                      0                       # What read queue length does an incoming req see
system.mem_ctrls.rdQLenPdf::16                      0                       # What read queue length does an incoming req see
system.mem_ctrls.rdQLenPdf::17                      0                       # What read queue length does an incoming req see
system.mem_ctrls.rdQLenPdf::18                      0                       # What read queue length does an incoming req see
system.mem_ctrls.rdQLenPdf::19                      0                       # What read queue length does an incoming req see
system.mem_ctrls.rdQLenPdf::20                      0                       # What read queue length does an incoming req see
system.mem_ctrls.rdQLenPdf::21                      0                       # What read queue length does an incoming req see
system.mem_ctrls.rdQLenPdf::22                      0                       # What read queue length does an incoming req see
system.mem_ctrls.rdQLenPdf::23                      0                       # What read queue length does an incoming req see
system.mem_ctrls.rdQLenPdf::24                      0                       # What read queue length does an incoming req see
system.mem_ctrls.rdQLenPdf::25                      0                       # What read queue length does an incoming req see
system.mem_ctrls.rdQLenPdf::26                      0                       # What read queue length does an incoming req see
system.mem_ctrls.rdQLenPdf::27                      0                       # What read queue length does an incoming req see
system.mem_ctrls.rdQLenPdf::28                      0                       # What read queue length does an incoming req see
system.mem_ctrls.rdQLenPdf::29                      0                       # What read queue length does an incoming req see
system.mem_ctrls.rdQLenPdf::30                      0                       # What read queue length does an incoming req see
system.mem_ctrls.rdQLenPdf::31                      0                       # What read queue length does an incoming req see
system.mem_ctrls.wrQLenPdf::0                       0                       # What write queue length does an incoming req see
system.mem_ctrls.wrQLenPdf::1                       0                       # What write queue length does an incoming req see
system.mem_ctrls.wrQLenPdf::2                       0                       # What write queue length does an incoming req see
system.mem_ctrls.wrQLenPdf::3                       0                       # What write queue length does an incoming req see
system.mem_ctrls.wrQLenPdf::4                       0                       # What write queue length does an incoming req see
system.mem_ctrls.wrQLenPdf::5                       0                       # What write queue length does an incoming req see
system.mem_ctrls.wrQLenPdf::6                       0                       # What write queue length does an incoming req see
system.mem_ctrls.wrQLenPdf::7                       0                       # What write queue length does an incoming req see
system.mem_ctrls.wrQLenPdf::8                       0                       # What write queue length does an incoming req see
system.mem_ctrls.wrQLenPdf::9                       0                       # What write queue length does an incoming req see
system.mem_ctrls.wrQLenPdf::10                      0                       # What write queue length does an incoming req see
system.mem_ctrls.wrQLenPdf::11                      0                       # What write queue length does an incoming req see
system.mem_ctrls.wrQLenPdf::12                      0                       # What write queue length does an incoming req see
system.mem_ctrls.wrQLenPdf::13                      0                       # What write queue length does an incoming req see
system.mem_ctrls.wrQLenPdf::14                      0                       # What write queue length does an incoming req see
system.mem_ctrls.wrQLenPdf::15                      0                       # What write queue length does an incoming req see
system.mem_ctrls.wrQLenPdf::16                      0                       # What write queue length does an incoming req see
system.mem_ctrls.wrQLenPdf::17                      0                       # What write queue length does an incoming req see
system.mem_ctrls.wrQLenPdf::18                      0                       # What write queue length does an incoming req see
system.mem_ctrls.wrQLenPdf::19                      0                       # What write queue length does an incoming req see
system.mem_ctrls.wrQLenPdf::20                      0                       # What write queue length does an incoming req see
system.mem_ctrls.wrQLenPdf::21                      0                       # What write queue length does an incoming req see
system.mem_ctrls.wrQLenPdf::22                      0                       # What write queue length does an incoming req see
system.mem_ctrls.wrQLenPdf::23                      0                       # What write queue length does an incoming req see
system.mem_ctrls.wrQLenPdf::24                      0                       # What write queue length does an incoming req see
system.mem_ctrls.wrQLenPdf::25                      0                       # What write queue length does an incoming req see
system.mem_ctrls.wrQLenPdf::26                      0                       # What write queue length does an incoming req see
system.mem_ctrls.wrQLenPdf::27                      0                       # What write queue length does an incoming req see
system.mem_ctrls.wrQLenPdf::28                      0                       # What write queue length does an incoming req see
system.mem_ctrls.wrQLenPdf::29                      0                       # What write queue length does an incoming req see
system.mem_ctrls.wrQLenPdf::30                      0                       # What write queue length does an incoming req see
system.mem_ctrls.wrQLenPdf::31                      0                       # What write queue length does an incoming req see
system.mem_ctrls.wrQLenPdf::32                      0                       # What write queue length does an incoming req see
system.mem_ctrls.wrQLenPdf::33                      0                       # What write queue length does an incoming req see
system.mem_ctrls.wrQLenPdf::34                      0                       # What write queue length does an incoming req see
system.mem_ctrls.wrQLenPdf::35                      0                       # What write queue length does an incoming req see
system.mem_ctrls.wrQLenPdf::36                      0                       # What write queue length does an incoming req see
system.mem_ctrls.wrQLenPdf::37                      0                       # What write queue length does an incoming req see
system.mem_ctrls.wrQLenPdf::38                      0                       # What write queue length does an incoming req see
system.mem_ctrls.wrQLenPdf::39                      0                       # What write queue length does an incoming req see
system.mem_ctrls.wrQLenPdf::40                      0                       # What write queue length does an incoming req see
system.mem_ctrls.wrQLenPdf::41                      0                       # What write queue length does an incoming req see
system.mem_ctrls.wrQLenPdf::42                      0                       # What write queue length does an incoming req see
system.mem_ctrls.wrQLenPdf::43                      0                       # What write queue length does an incoming req see
system.mem_ctrls.wrQLenPdf::44                      0                       # What write queue length does an incoming req see
system.mem_ctrls.wrQLenPdf::45                      0                       # What write queue length does an incoming req see
system.mem_ctrls.wrQLenPdf::46                      0                       # What write queue length does an incoming req see
system.mem_ctrls.wrQLenPdf::47                      0                       # What write queue length does an incoming req see
system.mem_ctrls.wrQLenPdf::48                      0                       # What write queue length does an incoming req see
system.mem_ctrls.wrQLenPdf::49                      0                       # What write queue length does an incoming req see
system.mem_ctrls.wrQLenPdf::50                      0                       # What write queue length does an incoming req see
system.mem_ctrls.wrQLenPdf::51                      0                       # What write queue length does an incoming req see
system.mem_ctrls.wrQLenPdf::52                      0                       # What write queue length does an incoming req see
system.mem_ctrls.wrQLenPdf::53                      0                       # What write queue length does an incoming req see
system.mem_ctrls.wrQLenPdf::54                      0                       # What write queue length does an incoming req see
system.mem_ctrls.wrQLenPdf::55                      0                       # What write queue length does an incoming req see
system.mem_ctrls.wrQLenPdf::56                      0                       # What write queue length does an incoming req see
system.mem_ctrls.wrQLenPdf::57                      0                       # What write queue length does an incoming req see
system.mem_ctrls.wrQLenPdf::58                      0                       # What write queue length does an incoming req see
system.mem_ctrls.wrQLenPdf::59                      0                       # What write queue length does an incoming req see
system.mem_ctrls.wrQLenPdf::60                      0                       # What write queue length does an incoming req see
system.mem_ctrls.wrQLenPdf::61                      0                       # What write queue length does an incoming req see
system.mem_ctrls.wrQLenPdf::62                      0                       # What write queue length does an incoming req see
system.mem_ctrls.wrQLenPdf::63                      0                       # What write queue length does an incoming req see
system.mem_ctrls.bytesPerActivate::samples          626                       # Bytes accessed per row activation
system.mem_ctrls.bytesPerActivate::mean    398.926518                       # Bytes accessed per row activation
system.mem_ctrls.bytesPerActivate::gmean   237.276497                       # Bytes accessed per row activation
system.mem_ctrls.bytesPerActivate::stdev   367.785221                       # Bytes accessed per row activation
system.mem_ctrls.bytesPerActivate::0-127          186     29.71%     29.71% # Bytes accessed per row activation
system.mem_ctrls.bytesPerActivate::128-255          124     19.81%     49.52% # Bytes accessed per row activation
system.mem_ctrls.bytesPerActivate::256-383           62      9.90%     59.42% # Bytes accessed per row activation
system.mem_ctrls.bytesPerActivate::384-511           43      6.87%     66.29% # Bytes accessed per row activation
system.mem_ctrls.bytesPerActivate::512-639           38      6.07%     72.36% # Bytes accessed per row activation
system.mem_ctrls.bytesPerActivate::640-767           25      3.99%     76.36% # Bytes accessed per row activation
system.mem_ctrls.bytesPerActivate::768-895           16      2.56%     78.91% # Bytes accessed per row activation
system.mem_ctrls.bytesPerActivate::896-1023           16      2.56%     81.47% # Bytes accessed per row activation
system.mem_ctrls.bytesPerActivate::1024-1151          116     18.53%    100.00% # Bytes accessed per row activation
system.mem_ctrls.bytesPerActivate::total          626                       # Bytes accessed per row activation
system.mem_ctrls.totQLat                     53412500                       # Total ticks spent queuing
system.mem_ctrls.totMemAccLat               126931250                       # Total ticks spent from burst creation until serviced by the DRAM
system.mem_ctrls.totBusLat                   19605000                       # Total ticks spent in databus transfers
system.mem_ctrls.avgQLat                     13622.16                       # Average queueing delay per DRAM burst
system.mem_ctrls.avgBusLat                    5000.00                       # Average bus latency per DRAM burst
system.mem_ctrls.avgMemAccLat                32372.16                       # Average memory access latency per DRAM burst
system.mem_ctrls.avgRdBW                        65.47                       # Average DRAM read bandwidth in MiByte/s
system.mem_ctrls.avgWrBW                         0.00                       # Average achieved write bandwidth in MiByte/s
system.mem_ctrls.avgRdBWSys                     65.47                       # Average system read bandwidth in MiByte/s
system.mem_ctrls.avgWrBWSys                      0.00                       # Average system write bandwidth in MiByte/s
system.mem_ctrls.peakBW                      12800.00                       # Theoretical peak bandwidth in MiByte/s
system.mem_ctrls.busUtil                         0.51                       # Data bus utilization in percentage
system.mem_ctrls.busUtilRead                     0.51                       # Data bus utilization in percentage for reads
system.mem_ctrls.busUtilWrite                    0.00                       # Data bus utilization in percentage for writes
system.mem_ctrls.avgRdQLen                       1.11                       # Average read queue length when enqueuing
system.mem_ctrls.avgWrQLen                       0.00                       # Average write queue length when enqueuing
system.mem_ctrls.readRowHits                     3288                       # Number of row buffer hits during reads
system.mem_ctrls.writeRowHits                       0                       # Number of row buffer hits during writes
system.mem_ctrls.readRowHitRate                 83.86                       # Row buffer hit rate for reads
system.mem_ctrls.writeRowHitRate                  nan                       # Row buffer hit rate for writes
system.mem_ctrls.avgGap                     977505.87                       # Average gap between requests
system.mem_ctrls.pageHitRate                    83.86                       # Row buffer hit rate, read and write combined
system.mem_ctrls_0.actEnergy                  2434740                       # Energy for activate commands per rank (pJ)
system.mem_ctrls_0.preEnergy                  1286505                       # Energy for precharge commands per rank (pJ)
system.mem_ctrls_0.readEnergy                14715540                       # Energy for read commands per rank (pJ)
system.mem_ctrls_0.writeEnergy                      0                       # Energy for write commands per rank (pJ)
system.mem_ctrls_0.refreshEnergy         27044160.000000                       # Energy for refresh commands per rank (pJ)
system.mem_ctrls_0.actBackEnergy             27337770                       # Energy for active background per rank (pJ)
system.mem_ctrls_0.preBackEnergy               996480                       # Energy for precharge background per rank (pJ)
system.mem_ctrls_0.actPowerDownEnergy        94334430                       # Energy for active power-down per rank (pJ)
system.mem_ctrls_0.prePowerDownEnergy        18296640                       # Energy for precharge power-down per rank (pJ)
system.mem_ctrls_0.selfRefreshEnergy        846005160                       # Energy for self refresh per rank (pJ)
system.mem_ctrls_0.totalEnergy             1032451425                       # Total energy per rank (pJ)
system.mem_ctrls_0.averagePower            269.366729                       # Core power per rank (mW)
system.mem_ctrls_0.totalIdleTime           3770223500                       # Total Idle time Per DRAM Rank
system.mem_ctrls_0.memoryStateTime::IDLE      1301500                       # Time in different power states
system.mem_ctrls_0.memoryStateTime::REF      11464000                       # Time in different power states
system.mem_ctrls_0.memoryStateTime::SREF   3515816250                       # Time in different power states
system.mem_ctrls_0.memoryStateTime::PRE_PDN     47643500                       # Time in different power states
system.mem_ctrls_0.memoryStateTime::ACT      49790750                       # Time in different power states
system.mem_ctrls_0.memoryStateTime::ACT_PDN    206868000                       # Time in different power states
system.mem_ctrls_1.actEnergy                  2084880                       # Energy for activate commands per rank (pJ)
system.mem_ctrls_1.preEnergy                  1089165                       # Energy for precharge commands per rank (pJ)
system.mem_ctrls_1.readEnergy                13280400                       # Energy for read commands per rank (pJ)
system.mem_ctrls_1.writeEnergy                      0                       # Energy for write commands per rank (pJ)
system.mem_ctrls_1.refreshEnergy         26429520.000000                       # Energy for refresh commands per rank (pJ)
system.mem_ctrls_1.actBackEnergy             25520610                       # Energy for active background per rank (pJ)
system.mem_ctrls_1.preBackEnergy              1729920                       # Energy for precharge background per rank (pJ)
system.mem_ctrls_1.actPowerDownEnergy       102785250                       # Energy for active power-down per rank (pJ)
system.mem_ctrls_1.prePowerDownEnergy        11502240                       # Energy for precharge power-down per rank (pJ)
system.mem_ctrls_1.selfRefreshEnergy        845749620                       # Energy for self refresh per rank (pJ)
system.mem_ctrls_1.totalEnergy             1030171605                       # Total energy per rank (pJ)
system.mem_ctrls_1.averagePower            268.771923                       # Core power per rank (mW)
system.mem_ctrls_1.totalIdleTime           3772320250                       # Total Idle time Per DRAM Rank
system.mem_ctrls_1.memoryStateTime::IDLE      3175500                       # Time in different power states
system.mem_ctrls_1.memoryStateTime::REF      11198000                       # Time in different power states
system.mem_ctrls_1.memoryStateTime::SREF   3517053750                       # Time in different power states
system.mem_ctrls_1.memoryStateTime::PRE_PDN     29948750                       # Time in different power states
system.mem_ctrls_1.memoryStateTime::ACT      46143000                       # Time in different power states
system.mem_ctrls_1.memoryStateTime::ACT_PDN    225365000                       # Time in different power states
system.pwrStateResidencyTicks::UNDEFINED   3832884000                       # Cumulative time (in ticks) in various power states
system.cpu.branchPred.lookups                  965401                       # Number of BP lookups
system.cpu.branchPred.condPredicted            965401                       # Number of conditional branches predicted
system.cpu.branchPred.condIncorrect             37307                       # Number of conditional branches incorrect
system.cpu.branchPred.BTBLookups               917693                       # Number of BTB lookups
system.cpu.branchPred.BTBHits                       0                       # Number of BTB hits
system.cpu.branchPred.BTBCorrect                    0                       # Number of correct BTB predictions (this stat may not work properly.
system.cpu.branchPred.BTBHitPct              0.000000                       # BTB Hit Percentage
system.cpu.branchPred.usedRAS                    6484                       # Number of times the RAS was used to get a target.
system.cpu.branchPred.RASInCorrect                285                       # Number of incorrect RAS predictions.
system.cpu.branchPred.indirectLookups          917693                       # Number of indirect predictor lookups.
system.cpu.branchPred.indirectHits             906859                       # Number of indirect target hits.
system.cpu.branchPred.indirectMisses            10834                       # Number of indirect misses.
system.cpu.branchPredindirectMispredicted         2112                       # Number of mispredicted indirect branches.
system.cpu_voltage_domain.voltage                   1                       # Voltage in Volts
system.cpu_clk_domain.clock                       500                       # Clock period in ticks
system.cpu.dtb.walker.pwrStateResidencyTicks::UNDEFINED   3832884000                       # Cumulative time (in ticks) in various power states
system.cpu.dtb.rdAccesses                     1905332                       # TLB accesses on read requests
system.cpu.dtb.wrAccesses                      518330                       # TLB accesses on write requests
system.cpu.dtb.rdMisses                          1143                       # TLB misses on read requests
system.cpu.dtb.wrMisses                            96                       # TLB misses on write requests
system.cpu.apic_clk_domain.clock                 8000                       # Clock period in ticks
system.cpu.interrupts.pwrStateResidencyTicks::UNDEFINED   3832884000                       # Cumulative time (in ticks) in various power states
system.cpu.itb.walker.pwrStateResidencyTicks::UNDEFINED   3832884000                       # Cumulative time (in ticks) in various power states
system.cpu.itb.rdAccesses                           0                       # TLB accesses on read requests
system.cpu.itb.wrAccesses                     1048585                       # TLB accesses on write requests
system.cpu.itb.rdMisses                             0                       # TLB misses on read requests
system.cpu.itb.wrMisses                           259                       # TLB misses on write requests
system.cpu.workload.numSyscalls                    76                       # Number of system calls
system.cpu.pwrStateResidencyTicks::ON      3832884000                       # Cumulative time (in ticks) in various power states
system.cpu.numCycles                          7665769                       # number of cpu cycles simulated
system.cpu.numWorkItemsStarted                      0                       # number of work items this cpu started
system.cpu.numWorkItemsCompleted                    0                       # number of work items this cpu completed
system.cpu.fetch.icacheStallCycles            1089223                       # Number of cycles fetch is stalled on an Icache miss
system.cpu.fetch.Insts                       14311266                       # Number of instructions fetch has processed
system.cpu.fetch.Branches                      965401                       # Number of branches that fetch encountered
system.cpu.fetch.predictedBranches             913343                       # Number of branches that fetch has predicted taken
system.cpu.fetch.Cycles                       6439585                       # Number of cycles fetch has run and was not squashing or blocked
system.cpu.fetch.SquashCycles                   74894                       # Number of cycles fetch has spent squashing
system.cpu.fetch.MiscStallCycles                 1241                       # Number of cycles fetch has spent waiting on interrupts, or bad addresses, or out of MSHRs
system.cpu.fetch.PendingTrapStallCycles          1150                       # Number of stall cycles due to pending traps
system.cpu.fetch.PendingQuiesceStallCycles           14                       # Number of stall cycles due to pending quiesce instructions
system.cpu.fetch.IcacheWaitRetryStallCycles          457                       # Number of stall cycles due to full MSHR
system.cpu.fetch.CacheLines                   1048430                       # Number of cache lines fetched
system.cpu.fetch.IcacheSquashes                 12203                       # Number of outstanding Icache misses that were squashed
system.cpu.fetch.rateDist::samples            7569117                       # Number of instructions fetched each cycle (Total)
system.cpu.fetch.rateDist::mean              2.502128                       # Number of instructions fetched each cycle (Total)
system.cpu.fetch.rateDist::stdev             3.262873                       # Number of instructions fetched each cycle (Total)
system.cpu.fetch.rateDist::underflows               0      0.00%      0.00% # Number of instructions fetched each cycle (Total)
system.cpu.fetch.rateDist::0                  4214421     55.68%     55.68% # Number of instructions fetched each cycle (Total)
system.cpu.fetch.rateDist::1                   267379      3.53%     59.21% # Number of instructions fetched each cycle (Total)
system.cpu.fetch.rateDist::2                   350820      4.63%     63.85% # Number of instructions fetched each cycle (Total)
system.cpu.fetch.rateDist::3                   152885      2.02%     65.87% # Number of instructions fetched each cycle (Total)
system.cpu.fetch.rateDist::4                   383600      5.07%     70.93% # Number of instructions fetched each cycle (Total)
system.cpu.fetch.rateDist::5                   306663      4.05%     74.99% # Number of instructions fetched each cycle (Total)
system.cpu.fetch.rateDist::6                   247524      3.27%     78.26% # Number of instructions fetched each cycle (Total)
system.cpu.fetch.rateDist::7                   208236      2.75%     81.01% # Number of instructions fetched each cycle (Total)
system.cpu.fetch.rateDist::8                  1437589     18.99%    100.00% # Number of instructions fetched each cycle (Total)
system.cpu.fetch.rateDist::overflows                0      0.00%    100.00% # Number of instructions fetched each cycle (Total)
system.cpu.fetch.rateDist::min_value                0                       # Number of instructions fetched each cycle (Total)
system.cpu.fetch.rateDist::max_value                8                       # Number of instructions fetched each cycle (Total)
system.cpu.fetch.rateDist::total              7569117                       # Number of instructions fetched each cycle (Total)
system.cpu.fetch.branchRate                  0.125937                       # Number of branch fetches per cycle
system.cpu.fetch.rate                        1.866905                       # Number of inst fetches per cycle
system.cpu.decode.IdleCycles                   794273                       # Number of cycles decode is idle
system.cpu.decode.BlockedCycles               4342684                       # Number of cycles decode is blocked
system.cpu.decode.RunCycles                    822187                       # Number of cycles decode is running
system.cpu.decode.UnblockCycles               1572526                       # Number of cycles decode is unblocking
system.cpu.decode.SquashCycles                  37447                       # Number of cycles decode is squashing
system.cpu.decode.DecodedInsts               17906164                       # Number of instructions handled by decode
system.cpu.rename.SquashCycles                  37447                       # Number of cycles rename is squashing
system.cpu.rename.IdleCycles                  1330253                       # Number of cycles rename is idle
system.cpu.rename.BlockCycles                  226898                       # Number of cycles rename is blocking
system.cpu.rename.serializeStallCycles           3943                       # count of cycles rename stalled for serializing inst
system.cpu.rename.RunCycles                   1849344                       # Number of cycles rename is running
system.cpu.rename.UnblockCycles               4121232                       # Number of cycles rename is unblocking
system.cpu.rename.RenamedInsts               17775027                       # Number of instructions processed by rename
system.cpu.rename.ROBFullEvents                  2294                       # Number of times rename has blocked due to ROB full
system.cpu.rename.IQFullEvents                2428862                       # Number of times rename has blocked due to IQ full
system.cpu.rename.LQFullEvents                1438736                       # Number of times rename has blocked due to LQ full
system.cpu.rename.SQFullEvents                  32512                       # Number of times rename has blocked due to SQ full
system.cpu.rename.RenamedOperands            30965975                       # Number of destination operands rename has renamed
system.cpu.rename.RenameLookups              47731128                       # Number of register rename lookups that rename has made
system.cpu.rename.int_rename_lookups         34552164                       # Number of integer rename lookups
system.cpu.rename.fp_rename_lookups             17595                       # Number of floating rename lookups
system.cpu.rename.CommittedMaps              29811636                       # Number of HB maps that are committed
system.cpu.rename.UndoneMaps                  1154339                       # Number of HB maps that are undone due to squashing
system.cpu.rename.serializingInsts                172                       # count of serializing insts renamed
system.cpu.rename.tempSerializingInsts            144                       # count of temporary serializing insts renamed
system.cpu.rename.skidInsts                   7775216                       # count of insts added to the skid buffer
system.cpu.memDep0.insertedLoads              1917785                       # Number of loads inserted to the mem dependence unit.
system.cpu.memDep0.insertedStores              534461                       # Number of stores inserted to the mem dependence unit.
system.cpu.memDep0.conflictingLoads            638689                       # Number of conflicting loads.
system.cpu.memDep0.conflictingStores           345312                       # Number of conflicting stores.
system.cpu.iq.iqInstsAdded                   17524547                       # Number of instructions added to the IQ (excludes non-spec)
system.cpu.iq.iqNonSpecInstsAdded                 338                       # Number of non-speculative instructions added to the IQ
system.cpu.iq.iqInstsIssued                  17271825                       # Number of instructions issued
system.cpu.iq.iqSquashedInstsIssued              2595                       # Number of squashed instructions issued
system.cpu.iq.iqSquashedInstsExamined          531748                       # Number of squashed instructions iterated over during squash; mainly for profiling
system.cpu.iq.iqSquashedOperandsExamined       960025                       # Number of squashed operands that are examined and possibly removed from graph
system.cpu.iq.iqSquashedNonSpecRemoved            262                       # Number of squashed non-spec instructions that were removed
system.cpu.iq.issued_per_cycle::samples       7569117                       # Number of insts issued each cycle
system.cpu.iq.issued_per_cycle::mean         2.281881                       # Number of insts issued each cycle
system.cpu.iq.issued_per_cycle::stdev        1.464333                       # Number of insts issued each cycle
system.cpu.iq.issued_per_cycle::underflows            0      0.00%      0.00% # Number of insts issued each cycle
system.cpu.iq.issued_per_cycle::0              691359      9.13%      9.13% # Number of insts issued each cycle
system.cpu.iq.issued_per_cycle::1             1514685     20.01%     29.15% # Number of insts issued each cycle
system.cpu.iq.issued_per_cycle::2             2524670     33.35%     62.50% # Number of insts issued each cycle
system.cpu.iq.issued_per_cycle::3             1602321     21.17%     83.67% # Number of insts issued each cycle
system.cpu.iq.issued_per_cycle::4              680812      8.99%     92.66% # Number of insts issued each cycle
system.cpu.iq.issued_per_cycle::5              307851      4.07%     96.73% # Number of insts issued each cycle
system.cpu.iq.issued_per_cycle::6              149708      1.98%     98.71% # Number of insts issued each cycle
system.cpu.iq.issued_per_cycle::7               41602      0.55%     99.26% # Number of insts issued each cycle
system.cpu.iq.issued_per_cycle::8               56109      0.74%    100.00% # Number of insts issued each cycle
system.cpu.iq.issued_per_cycle::overflows            0      0.00%    100.00% # Number of insts issued each cycle
system.cpu.iq.issued_per_cycle::min_value            0                       # Number of insts issued each cycle
system.cpu.iq.issued_per_cycle::max_value            8                       # Number of insts issued each cycle
system.cpu.iq.issued_per_cycle::total         7569117                       # Number of insts issued each cycle
system.cpu.iq.fu_full::No_OpClass                   0      0.00%      0.00% # attempts to use FU when none available
system.cpu.iq.fu_full::IntAlu                   11772     77.47%     77.47% # attempts to use FU when none available
system.cpu.iq.fu_full::IntMult                      0      0.00%     77.47% # attempts to use FU when none available
system.cpu.iq.fu_full::IntDiv                       0      0.00%     77.47% # attempts to use FU when none available
system.cpu.iq.fu_full::FloatAdd                    44      0.29%     77.76% # attempts to use FU when none available
system.cpu.iq.fu_full::FloatCmp                     0      0.00%     77.76% # attempts to use FU when none available
system.cpu.iq.fu_full::FloatCvt                     0      0.00%     77.76% # attempts to use FU when none available
system.cpu.iq.fu_full::FloatMult                    0      0.00%     77.76% # attempts to use FU when none available
system.cpu.iq.fu_full::FloatMultAcc                 0      0.00%     77.76% # attempts to use FU when none available
system.cpu.iq.fu_full::FloatDiv                     0      0.00%     77.76% # attempts to use FU when none available
system.cpu.iq.fu_full::FloatMisc                    0      0.00%     77.76% # attempts to use FU when none available
system.cpu.iq.fu_full::FloatSqrt                    0      0.00%     77.76% # attempts to use FU when none available
system.cpu.iq.fu_full::SimdAdd                      0      0.00%     77.76% # attempts to use FU when none available
system.cpu.iq.fu_full::SimdAddAcc                   0      0.00%     77.76% # attempts to use FU when none available
system.cpu.iq.fu_full::SimdAlu                      0      0.00%     77.76% # attempts to use FU when none available
system.cpu.iq.fu_full::SimdCmp                      0      0.00%     77.76% # attempts to use FU when none available
system.cpu.iq.fu_full::SimdCvt                      0      0.00%     77.76% # attempts to use FU when none available
system.cpu.iq.fu_full::SimdMisc                     0      0.00%     77.76% # attempts to use FU when none available
system.cpu.iq.fu_full::SimdMult                     0      0.00%     77.76% # attempts to use FU when none available
system.cpu.iq.fu_full::SimdMultAcc                  0      0.00%     77.76% # attempts to use FU when none available
system.cpu.iq.fu_full::SimdShift                    0      0.00%     77.76% # attempts to use FU when none available
system.cpu.iq.fu_full::SimdShiftAcc                 0      0.00%     77.76% # attempts to use FU when none available
system.cpu.iq.fu_full::SimdSqrt                     0      0.00%     77.76% # attempts to use FU when none available
system.cpu.iq.fu_full::SimdFloatAdd                 0      0.00%     77.76% # attempts to use FU when none available
system.cpu.iq.fu_full::SimdFloatAlu                 0      0.00%     77.76% # attempts to use FU when none available
system.cpu.iq.fu_full::SimdFloatCmp                 0      0.00%     77.76% # attempts to use FU when none available
system.cpu.iq.fu_full::SimdFloatCvt                 0      0.00%     77.76% # attempts to use FU when none available
system.cpu.iq.fu_full::SimdFloatDiv                 0      0.00%     77.76% # attempts to use FU when none available
system.cpu.iq.fu_full::SimdFloatMisc                0      0.00%     77.76% # attempts to use FU when none available
system.cpu.iq.fu_full::SimdFloatMult                0      0.00%     77.76% # attempts to use FU when none available
system.cpu.iq.fu_full::SimdFloatMultAcc             0      0.00%     77.76% # attempts to use FU when none available
system.cpu.iq.fu_full::SimdFloatSqrt                0      0.00%     77.76% # attempts to use FU when none available
system.cpu.iq.fu_full::MemRead                   2094     13.78%     91.54% # attempts to use FU when none available
system.cpu.iq.fu_full::MemWrite                  1203      7.92%     99.45% # attempts to use FU when none available
system.cpu.iq.fu_full::FloatMemRead                35      0.23%     99.68% # attempts to use FU when none available
system.cpu.iq.fu_full::FloatMemWrite               48      0.32%    100.00% # attempts to use FU when none available
system.cpu.iq.fu_full::IprAccess                    0      0.00%    100.00% # attempts to use FU when none available
system.cpu.iq.fu_full::InstPrefetch                 0      0.00%    100.00% # attempts to use FU when none available
system.cpu.iq.FU_type_0::No_OpClass             14217      0.08%      0.08% # Type of FU issued
system.cpu.iq.FU_type_0::IntAlu              14816563     85.78%     85.87% # Type of FU issued
system.cpu.iq.FU_type_0::IntMult                   70      0.00%     85.87% # Type of FU issued
system.cpu.iq.FU_type_0::IntDiv                  3220      0.02%     85.89% # Type of FU issued
system.cpu.iq.FU_type_0::FloatAdd                4345      0.03%     85.91% # Type of FU issued
system.cpu.iq.FU_type_0::FloatCmp                   0      0.00%     85.91% # Type of FU issued
system.cpu.iq.FU_type_0::FloatCvt                   0      0.00%     85.91% # Type of FU issued
system.cpu.iq.FU_type_0::FloatMult                  0      0.00%     85.91% # Type of FU issued
system.cpu.iq.FU_type_0::FloatMultAcc               0      0.00%     85.91% # Type of FU issued
system.cpu.iq.FU_type_0::FloatDiv                   0      0.00%     85.91% # Type of FU issued
system.cpu.iq.FU_type_0::FloatMisc                  0      0.00%     85.91% # Type of FU issued
system.cpu.iq.FU_type_0::FloatSqrt                  0      0.00%     85.91% # Type of FU issued
system.cpu.iq.FU_type_0::SimdAdd                    0      0.00%     85.91% # Type of FU issued
system.cpu.iq.FU_type_0::SimdAddAcc                 0      0.00%     85.91% # Type of FU issued
system.cpu.iq.FU_type_0::SimdAlu                    0      0.00%     85.91% # Type of FU issued
system.cpu.iq.FU_type_0::SimdCmp                    0      0.00%     85.91% # Type of FU issued
system.cpu.iq.FU_type_0::SimdCvt                    0      0.00%     85.91% # Type of FU issued
system.cpu.iq.FU_type_0::SimdMisc                   0      0.00%     85.91% # Type of FU issued
system.cpu.iq.FU_type_0::SimdMult                   0      0.00%     85.91% # Type of FU issued
system.cpu.iq.FU_type_0::SimdMultAcc                0      0.00%     85.91% # Type of FU issued
system.cpu.iq.FU_type_0::SimdShift                  0      0.00%     85.91% # Type of FU issued
system.cpu.iq.FU_type_0::SimdShiftAcc               0      0.00%     85.91% # Type of FU issued
system.cpu.iq.FU_type_0::SimdSqrt                   0      0.00%     85.91% # Type of FU issued
system.cpu.iq.FU_type_0::SimdFloatAdd               0      0.00%     85.91% # Type of FU issued
system.cpu.iq.FU_type_0::SimdFloatAlu               0      0.00%     85.91% # Type of FU issued
system.cpu.iq.FU_type_0::SimdFloatCmp               0      0.00%     85.91% # Type of FU issued
system.cpu.iq.FU_type_0::SimdFloatCvt               0      0.00%     85.91% # Type of FU issued
system.cpu.iq.FU_type_0::SimdFloatDiv               0      0.00%     85.91% # Type of FU issued
system.cpu.iq.FU_type_0::SimdFloatMisc              0      0.00%     85.91% # Type of FU issued
system.cpu.iq.FU_type_0::SimdFloatMult              0      0.00%     85.91% # Type of FU issued
system.cpu.iq.FU_type_0::SimdFloatMultAcc            0      0.00%     85.91% # Type of FU issued
system.cpu.iq.FU_type_0::SimdFloatSqrt              0      0.00%     85.91% # Type of FU issued
system.cpu.iq.FU_type_0::MemRead              1907015     11.04%     96.95% # Type of FU issued
system.cpu.iq.FU_type_0::MemWrite              523799      3.03%     99.98% # Type of FU issued
system.cpu.iq.FU_type_0::FloatMemRead            2150      0.01%    100.00% # Type of FU issued
system.cpu.iq.FU_type_0::FloatMemWrite            446      0.00%    100.00% # Type of FU issued
system.cpu.iq.FU_type_0::IprAccess                  0      0.00%    100.00% # Type of FU issued
system.cpu.iq.FU_type_0::InstPrefetch               0      0.00%    100.00% # Type of FU issued
system.cpu.iq.FU_type_0::total               17271825                       # Type of FU issued
system.cpu.iq.rate                           2.253111                       # Inst issue rate
system.cpu.iq.fu_busy_cnt                       15196                       # FU busy when requested
system.cpu.iq.fu_busy_rate                   0.000880                       # FU busy rate (busy events/executed inst)
system.cpu.iq.int_inst_queue_reads           42116192                       # Number of integer instruction queue reads
system.cpu.iq.int_inst_queue_writes          18041816                       # Number of integer instruction queue writes
system.cpu.iq.int_inst_queue_wakeup_accesses     17219486                       # Number of integer instruction queue wakeup accesses
system.cpu.iq.fp_inst_queue_reads               14366                       # Number of floating instruction queue reads
system.cpu.iq.fp_inst_queue_writes              14905                       # Number of floating instruction queue writes
system.cpu.iq.fp_inst_queue_wakeup_accesses         6422                       # Number of floating instruction queue wakeup accesses
system.cpu.iq.vec_inst_queue_reads                  0                       # Number of vector instruction queue reads
system.cpu.iq.vec_inst_queue_writes                 0                       # Number of vector instruction queue writes
system.cpu.iq.vec_inst_queue_wakeup_accesses            0                       # Number of vector instruction queue wakeup accesses
system.cpu.iq.int_alu_accesses               17265609                       # Number of integer alu accesses
system.cpu.iq.fp_alu_accesses                    7195                       # Number of floating point alu accesses
system.cpu.iq.vec_alu_accesses                      0                       # Number of vector alu accesses
system.cpu.iew.lsq.thread0.forwLoads           232955                       # Number of loads that had data forwarded from stores
system.cpu.iew.lsq.thread0.invAddrLoads             0                       # Number of loads ignored due to an invalid address
system.cpu.iew.lsq.thread0.squashedLoads        50498                       # Number of loads squashed
system.cpu.iew.lsq.thread0.ignoredResponses           27                       # Number of memory responses ignored because the instruction is squashed
system.cpu.iew.lsq.thread0.memOrderViolation           92                       # Number of memory ordering violations
system.cpu.iew.lsq.thread0.squashedStores        21801                       # Number of stores squashed
system.cpu.iew.lsq.thread0.invAddrSwpfs             0                       # Number of software prefetches ignored due to an invalid address
system.cpu.iew.lsq.thread0.blockedLoads             0                       # Number of blocked loads due to partial load-store forwarding
system.cpu.iew.lsq.thread0.rescheduledLoads           12                       # Number of loads that were rescheduled
system.cpu.iew.lsq.thread0.cacheBlocked           316                       # Number of times an access to memory failed due to the cache being blocked
system.cpu.iew.iewIdleCycles                        0                       # Number of cycles IEW is idle
system.cpu.iew.iewSquashCycles                  37447                       # Number of cycles IEW is squashing
system.cpu.iew.iewBlockCycles                  134030                       # Number of cycles IEW is blocking
system.cpu.iew.iewUnblockCycles                  7155                       # Number of cycles IEW is unblocking
system.cpu.iew.iewDispatchedInsts            17524885                       # Number of instructions dispatched to IQ
system.cpu.iew.iewDispSquashedInsts             36305                       # Number of squashed instructions skipped by dispatch
system.cpu.iew.iewDispLoadInsts               1917785                       # Number of dispatched load instructions
system.cpu.iew.iewDispStoreInsts               534461                       # Number of dispatched store instructions
system.cpu.iew.iewDispNonSpecInsts                195                       # Number of dispatched non-speculative instructions
system.cpu.iew.iewIQFullEvents                   1029                       # Number of times the IQ has become full, causing a stall
system.cpu.iew.iewLSQFullEvents                  5814                       # Number of times the LSQ has become full, causing a stall
system.cpu.iew.memOrderViolationEvents             92                       # Number of memory order violations
system.cpu.iew.predictedTakenIncorrect          31488                       # Number of branches that were predicted taken incorrectly
system.cpu.iew.predictedNotTakenIncorrect         7428                       # Number of branches that were predicted not taken incorrectly
system.cpu.iew.branchMispredicts                38916                       # Number of branch mispredicts detected at execute
system.cpu.iew.iewExecutedInsts              17242754                       # Number of executed instructions
system.cpu.iew.iewExecLoadInsts               1905290                       # Number of load instructions executed
system.cpu.iew.iewExecSquashedInsts             29071                       # Number of squashed instructions skipped in execute
system.cpu.iew.exec_swp                             0                       # number of swp insts executed
system.cpu.iew.exec_nop                             0                       # number of nop insts executed
system.cpu.iew.exec_refs                      2423613                       # number of memory reference insts executed
system.cpu.iew.exec_branches                   866646                       # Number of branches executed
system.cpu.iew.exec_stores                     518323                       # Number of stores executed
system.cpu.iew.exec_rate                     2.249318                       # Inst execution rate
system.cpu.iew.wb_sent                       17230574                       # cumulative count of insts sent to commit
system.cpu.iew.wb_count                      17225908                       # cumulative count of insts written-back
system.cpu.iew.wb_producers                  15176671                       # num instructions producing a value
system.cpu.iew.wb_consumers                  31734197                       # num instructions consuming a value
system.cpu.iew.wb_rate                       2.247121                       # insts written-back per cycle
system.cpu.iew.wb_fanout                     0.478243                       # average fanout of values written-back
system.cpu.commit.commitSquashedInsts          531821                       # The number of squashed insts skipped by commit
system.cpu.commit.commitNonSpecStalls              76                       # The number of times commit has been forced to stall to communicate backwards
system.cpu.commit.branchMispredicts             37382                       # The number of times a branch was mispredicted
system.cpu.commit.committed_per_cycle::samples      7479503                       # Number of insts commited each cycle
system.cpu.commit.committed_per_cycle::mean     2.271961                       # Number of insts commited each cycle
system.cpu.commit.committed_per_cycle::stdev     2.154043                       # Number of insts commited each cycle
system.cpu.commit.committed_per_cycle::underflows            0      0.00%      0.00% # Number of insts commited each cycle
system.cpu.commit.committed_per_cycle::0       885658     11.84%     11.84% # Number of insts commited each cycle
system.cpu.commit.committed_per_cycle::1      2976240     39.79%     51.63% # Number of insts commited each cycle
system.cpu.commit.committed_per_cycle::2      1413538     18.90%     70.53% # Number of insts commited each cycle
system.cpu.commit.committed_per_cycle::3       707514      9.46%     79.99% # Number of insts commited each cycle
system.cpu.commit.committed_per_cycle::4       316213      4.23%     84.22% # Number of insts commited each cycle
system.cpu.commit.committed_per_cycle::5       319526      4.27%     88.49% # Number of insts commited each cycle
system.cpu.commit.committed_per_cycle::6       199976      2.67%     91.16% # Number of insts commited each cycle
system.cpu.commit.committed_per_cycle::7       281764      3.77%     94.93% # Number of insts commited each cycle
system.cpu.commit.committed_per_cycle::8       379074      5.07%    100.00% # Number of insts commited each cycle
system.cpu.commit.committed_per_cycle::overflows            0      0.00%    100.00% # Number of insts commited each cycle
system.cpu.commit.committed_per_cycle::min_value            0                       # Number of insts commited each cycle
system.cpu.commit.committed_per_cycle::max_value            8                       # Number of insts commited each cycle
system.cpu.commit.committed_per_cycle::total      7479503                       # Number of insts commited each cycle
system.cpu.commit.committedInsts             12908748                       # Number of instructions committed
system.cpu.commit.committedOps               16993136                       # Number of ops (including micro ops) committed
system.cpu.commit.swp_count                         0                       # Number of s/w prefetches committed
system.cpu.commit.refs                        2379947                       # Number of memory references committed
system.cpu.commit.loads                       1867287                       # Number of loads committed
system.cpu.commit.membars                           0                       # Number of memory barriers committed
system.cpu.commit.branches                     850234                       # Number of branches committed
system.cpu.commit.vec_insts                         0                       # Number of committed Vector instructions.
system.cpu.commit.fp_insts                       4311                       # Number of committed floating point instructions.
system.cpu.commit.int_insts                  16979079                       # Number of committed integer instructions.
system.cpu.commit.function_calls                 6035                       # Number of function calls committed.
system.cpu.commit.op_class_0::No_OpClass        11594      0.07%      0.07% # Class of committed instruction
system.cpu.commit.op_class_0::IntAlu         14595990     85.89%     85.96% # Class of committed instruction
system.cpu.commit.op_class_0::IntMult              51      0.00%     85.96% # Class of committed instruction
system.cpu.commit.op_class_0::IntDiv             2753      0.02%     85.98% # Class of committed instruction
system.cpu.commit.op_class_0::FloatAdd           2801      0.02%     85.99% # Class of committed instruction
system.cpu.commit.op_class_0::FloatCmp              0      0.00%     85.99% # Class of committed instruction
system.cpu.commit.op_class_0::FloatCvt              0      0.00%     85.99% # Class of committed instruction
system.cpu.commit.op_class_0::FloatMult             0      0.00%     85.99% # Class of committed instruction
system.cpu.commit.op_class_0::FloatMultAcc            0      0.00%     85.99% # Class of committed instruction
system.cpu.commit.op_class_0::FloatDiv              0      0.00%     85.99% # Class of committed instruction
system.cpu.commit.op_class_0::FloatMisc             0      0.00%     85.99% # Class of committed instruction
system.cpu.commit.op_class_0::FloatSqrt             0      0.00%     85.99% # Class of committed instruction
system.cpu.commit.op_class_0::SimdAdd               0      0.00%     85.99% # Class of committed instruction
system.cpu.commit.op_class_0::SimdAddAcc            0      0.00%     85.99% # Class of committed instruction
system.cpu.commit.op_class_0::SimdAlu               0      0.00%     85.99% # Class of committed instruction
system.cpu.commit.op_class_0::SimdCmp               0      0.00%     85.99% # Class of committed instruction
system.cpu.commit.op_class_0::SimdCvt               0      0.00%     85.99% # Class of committed instruction
system.cpu.commit.op_class_0::SimdMisc              0      0.00%     85.99% # Class of committed instruction
system.cpu.commit.op_class_0::SimdMult              0      0.00%     85.99% # Class of committed instruction
system.cpu.commit.op_class_0::SimdMultAcc            0      0.00%     85.99% # Class of committed instruction
system.cpu.commit.op_class_0::SimdShift             0      0.00%     85.99% # Class of committed instruction
system.cpu.commit.op_class_0::SimdShiftAcc            0      0.00%     85.99% # Class of committed instruction
system.cpu.commit.op_class_0::SimdSqrt              0      0.00%     85.99% # Class of committed instruction
system.cpu.commit.op_class_0::SimdFloatAdd            0      0.00%     85.99% # Class of committed instruction
system.cpu.commit.op_class_0::SimdFloatAlu            0      0.00%     85.99% # Class of committed instruction
system.cpu.commit.op_class_0::SimdFloatCmp            0      0.00%     85.99% # Class of committed instruction
system.cpu.commit.op_class_0::SimdFloatCvt            0      0.00%     85.99% # Class of committed instruction
system.cpu.commit.op_class_0::SimdFloatDiv            0      0.00%     85.99% # Class of committed instruction
system.cpu.commit.op_class_0::SimdFloatMisc            0      0.00%     85.99% # Class of committed instruction
system.cpu.commit.op_class_0::SimdFloatMult            0      0.00%     85.99% # Class of committed instruction
system.cpu.commit.op_class_0::SimdFloatMultAcc            0      0.00%     85.99% # Class of committed instruction
system.cpu.commit.op_class_0::SimdFloatSqrt            0      0.00%     85.99% # Class of committed instruction
system.cpu.commit.op_class_0::MemRead         1866263     10.98%     96.98% # Class of committed instruction
system.cpu.commit.op_class_0::MemWrite         512244      3.01%     99.99% # Class of committed instruction
system.cpu.commit.op_class_0::FloatMemRead         1024      0.01%    100.00% # Class of committed instruction
system.cpu.commit.op_class_0::FloatMemWrite          416      0.00%    100.00% # Class of committed instruction
system.cpu.commit.op_class_0::IprAccess             0      0.00%    100.00% # Class of committed instruction
system.cpu.commit.op_class_0::InstPrefetch            0      0.00%    100.00% # Class of committed instruction
system.cpu.commit.op_class_0::total          16993136                       # Class of committed instruction
system.cpu.commit.bw_lim_events                379074                       # number cycles where commit BW limit reached
system.cpu.rob.rob_reads                     24625386                       # The number of ROB reads
system.cpu.rob.rob_writes                    35140184                       # The number of ROB writes
system.cpu.timesIdled                             828                       # Number of times that the entire CPU went into an idle state and unscheduled itself
system.cpu.idleCycles                           96652                       # Total number of cycles that the CPU has spent unscheduled due to idling
system.cpu.committedInsts                    12908748                       # Number of Instructions Simulated
system.cpu.committedOps                      16993136                       # Number of Ops (including micro ops) Simulated
system.cpu.cpi                               0.593843                       # CPI: Cycles Per Instruction
system.cpu.cpi_total                         0.593843                       # CPI: Total CPI of All Threads
system.cpu.ipc                               1.683947                       # IPC: Instructions Per Cycle
system.cpu.ipc_total                         1.683947                       # IPC: Total IPC of All Threads
system.cpu.int_regfile_reads                 33432788                       # number of integer regfile reads
system.cpu.int_regfile_writes                15832109                       # number of integer regfile writes
system.cpu.fp_regfile_reads                      9815                       # number of floating regfile reads
system.cpu.fp_regfile_writes                     5502                       # number of floating regfile writes
system.cpu.cc_regfile_reads                   8553429                       # number of cc regfile reads
system.cpu.cc_regfile_writes                 14252724                       # number of cc regfile writes
system.cpu.misc_regfile_reads                 4173755                       # number of misc regfile reads
system.cpu.dcache.tags.pwrStateResidencyTicks::UNDEFINED   3832884000                       # Cumulative time (in ticks) in various power states
system.cpu.dcache.tags.replacements              1843                       # number of replacements
system.cpu.dcache.tags.tagsinuse          1009.105770                       # Cycle average of tags in use
system.cpu.dcache.tags.total_refs             2169397                       # Total number of references to valid blocks.
system.cpu.dcache.tags.sampled_refs              2867                       # Sample count of references to valid blocks.
system.cpu.dcache.tags.avg_refs            756.678409                       # Average number of references to valid blocks.
system.cpu.dcache.tags.warmup_cycle            185500                       # Cycle when the warmup percentage was hit.
system.cpu.dcache.tags.occ_blocks::cpu.data  1009.105770                       # Average occupied blocks per requestor
system.cpu.dcache.tags.occ_percent::cpu.data     0.985455                       # Average percentage of cache occupancy
system.cpu.dcache.tags.occ_percent::total     0.985455                       # Average percentage of cache occupancy
system.cpu.dcache.tags.occ_task_id_blocks::1024         1024                       # Occupied blocks per task id
system.cpu.dcache.tags.age_task_id_blocks_1024::0           55                       # Occupied blocks per task id
system.cpu.dcache.tags.age_task_id_blocks_1024::1           42                       # Occupied blocks per task id
system.cpu.dcache.tags.age_task_id_blocks_1024::3          927                       # Occupied blocks per task id
system.cpu.dcache.tags.occ_task_id_percent::1024            1                       # Percentage of cache occupancy per task id
system.cpu.dcache.tags.tag_accesses           4370153                       # Number of tag accesses
system.cpu.dcache.tags.data_accesses          4370153                       # Number of data accesses
system.cpu.dcache.pwrStateResidencyTicks::UNDEFINED   3832884000                       # Cumulative time (in ticks) in various power states
system.cpu.dcache.ReadReq_hits::cpu.data      1657242                       # number of ReadReq hits
system.cpu.dcache.ReadReq_hits::total         1657242                       # number of ReadReq hits
system.cpu.dcache.WriteReq_hits::cpu.data       512155                       # number of WriteReq hits
system.cpu.dcache.WriteReq_hits::total         512155                       # number of WriteReq hits
system.cpu.dcache.demand_hits::cpu.data       2169397                       # number of demand (read+write) hits
system.cpu.dcache.demand_hits::total          2169397                       # number of demand (read+write) hits
system.cpu.dcache.overall_hits::cpu.data      2169397                       # number of overall hits
system.cpu.dcache.overall_hits::total         2169397                       # number of overall hits
system.cpu.dcache.ReadReq_misses::cpu.data        13739                       # number of ReadReq misses
system.cpu.dcache.ReadReq_misses::total         13739                       # number of ReadReq misses
system.cpu.dcache.WriteReq_misses::cpu.data          507                       # number of WriteReq misses
system.cpu.dcache.WriteReq_misses::total          507                       # number of WriteReq misses
system.cpu.dcache.demand_misses::cpu.data        14246                       # number of demand (read+write) misses
system.cpu.dcache.demand_misses::total          14246                       # number of demand (read+write) misses
system.cpu.dcache.overall_misses::cpu.data        14246                       # number of overall misses
system.cpu.dcache.overall_misses::total         14246                       # number of overall misses
system.cpu.dcache.ReadReq_miss_latency::cpu.data    867169500                       # number of ReadReq miss cycles
system.cpu.dcache.ReadReq_miss_latency::total    867169500                       # number of ReadReq miss cycles
system.cpu.dcache.WriteReq_miss_latency::cpu.data     41650500                       # number of WriteReq miss cycles
system.cpu.dcache.WriteReq_miss_latency::total     41650500                       # number of WriteReq miss cycles
system.cpu.dcache.demand_miss_latency::cpu.data    908820000                       # number of demand (read+write) miss cycles
system.cpu.dcache.demand_miss_latency::total    908820000                       # number of demand (read+write) miss cycles
system.cpu.dcache.overall_miss_latency::cpu.data    908820000                       # number of overall miss cycles
system.cpu.dcache.overall_miss_latency::total    908820000                       # number of overall miss cycles
system.cpu.dcache.ReadReq_accesses::cpu.data      1670981                       # number of ReadReq accesses(hits+misses)
system.cpu.dcache.ReadReq_accesses::total      1670981                       # number of ReadReq accesses(hits+misses)
system.cpu.dcache.WriteReq_accesses::cpu.data       512662                       # number of WriteReq accesses(hits+misses)
system.cpu.dcache.WriteReq_accesses::total       512662                       # number of WriteReq accesses(hits+misses)
system.cpu.dcache.demand_accesses::cpu.data      2183643                       # number of demand (read+write) accesses
system.cpu.dcache.demand_accesses::total      2183643                       # number of demand (read+write) accesses
system.cpu.dcache.overall_accesses::cpu.data      2183643                       # number of overall (read+write) accesses
system.cpu.dcache.overall_accesses::total      2183643                       # number of overall (read+write) accesses
system.cpu.dcache.ReadReq_miss_rate::cpu.data     0.008222                       # miss rate for ReadReq accesses
system.cpu.dcache.ReadReq_miss_rate::total     0.008222                       # miss rate for ReadReq accesses
system.cpu.dcache.WriteReq_miss_rate::cpu.data     0.000989                       # miss rate for WriteReq accesses
system.cpu.dcache.WriteReq_miss_rate::total     0.000989                       # miss rate for WriteReq accesses
system.cpu.dcache.demand_miss_rate::cpu.data     0.006524                       # miss rate for demand accesses
system.cpu.dcache.demand_miss_rate::total     0.006524                       # miss rate for demand accesses
system.cpu.dcache.overall_miss_rate::cpu.data     0.006524                       # miss rate for overall accesses
system.cpu.dcache.overall_miss_rate::total     0.006524                       # miss rate for overall accesses
system.cpu.dcache.ReadReq_avg_miss_latency::cpu.data 63117.366621                       # average ReadReq miss latency
system.cpu.dcache.ReadReq_avg_miss_latency::total 63117.366621                       # average ReadReq miss latency
system.cpu.dcache.WriteReq_avg_miss_latency::cpu.data 82150.887574                       # average WriteReq miss latency
system.cpu.dcache.WriteReq_avg_miss_latency::total 82150.887574                       # average WriteReq miss latency
system.cpu.dcache.demand_avg_miss_latency::cpu.data 63794.749403                       # average overall miss latency
system.cpu.dcache.demand_avg_miss_latency::total 63794.749403                       # average overall miss latency
system.cpu.dcache.overall_avg_miss_latency::cpu.data 63794.749403                       # average overall miss latency
system.cpu.dcache.overall_avg_miss_latency::total 63794.749403                       # average overall miss latency
system.cpu.dcache.blocked_cycles::no_mshrs        13575                       # number of cycles access was blocked
system.cpu.dcache.blocked_cycles::no_targets          279                       # number of cycles access was blocked
system.cpu.dcache.blocked::no_mshrs               235                       # number of cycles access was blocked
system.cpu.dcache.blocked::no_targets              11                       # number of cycles access was blocked
system.cpu.dcache.avg_blocked_cycles::no_mshrs    57.765957                       # average number of cycles each access was blocked
system.cpu.dcache.avg_blocked_cycles::no_targets    25.363636                       # average number of cycles each access was blocked
system.cpu.dcache.writebacks::writebacks          586                       # number of writebacks
system.cpu.dcache.writebacks::total               586                       # number of writebacks
system.cpu.dcache.ReadReq_mshr_hits::cpu.data        11374                       # number of ReadReq MSHR hits
system.cpu.dcache.ReadReq_mshr_hits::total        11374                       # number of ReadReq MSHR hits
system.cpu.dcache.WriteReq_mshr_hits::cpu.data            5                       # number of WriteReq MSHR hits
system.cpu.dcache.WriteReq_mshr_hits::total            5                       # number of WriteReq MSHR hits
system.cpu.dcache.demand_mshr_hits::cpu.data        11379                       # number of demand (read+write) MSHR hits
system.cpu.dcache.demand_mshr_hits::total        11379                       # number of demand (read+write) MSHR hits
system.cpu.dcache.overall_mshr_hits::cpu.data        11379                       # number of overall MSHR hits
system.cpu.dcache.overall_mshr_hits::total        11379                       # number of overall MSHR hits
system.cpu.dcache.ReadReq_mshr_misses::cpu.data         2365                       # number of ReadReq MSHR misses
system.cpu.dcache.ReadReq_mshr_misses::total         2365                       # number of ReadReq MSHR misses
system.cpu.dcache.WriteReq_mshr_misses::cpu.data          502                       # number of WriteReq MSHR misses
system.cpu.dcache.WriteReq_mshr_misses::total          502                       # number of WriteReq MSHR misses
system.cpu.dcache.demand_mshr_misses::cpu.data         2867                       # number of demand (read+write) MSHR misses
system.cpu.dcache.demand_mshr_misses::total         2867                       # number of demand (read+write) MSHR misses
[...]
system.l2.ReadSharedReq_accesses::cpu.data         2365                       # number of ReadSharedReq accesses(hits+misses)
system.l2.ReadSharedReq_accesses::total          2365                       # number of ReadSharedReq accesses(hits+misses)
system.l2.demand_accesses::cpu.inst              1577                       # number of demand (read+write) accesses
system.l2.demand_accesses::cpu.data              2867                       # number of demand (read+write) accesses
system.l2.demand_accesses::total                 4444                       # number of demand (read+write) accesses
system.l2.overall_accesses::cpu.inst             1577                       # number of overall (read+write) accesses
system.l2.overall_accesses::cpu.data             2867                       # number of overall (read+write) accesses
system.l2.overall_accesses::total                4444                       # number of overall (read+write) accesses
system.l2.ReadExReq_miss_rate::cpu.data      0.958167                       # miss rate for ReadExReq accesses
system.l2.ReadExReq_miss_rate::total         0.958167                       # miss rate for ReadExReq accesses
system.l2.ReadCleanReq_miss_rate::cpu.inst     0.887762                       # miss rate for ReadCleanReq accesses
system.l2.ReadCleanReq_miss_rate::total      0.887762                       # miss rate for ReadCleanReq accesses
system.l2.ReadSharedReq_miss_rate::cpu.data     0.863425                       # miss rate for ReadSharedReq accesses
system.l2.ReadSharedReq_miss_rate::total     0.863425                       # miss rate for ReadSharedReq accesses
system.l2.demand_miss_rate::cpu.inst         0.887762                       # miss rate for demand accesses
system.l2.demand_miss_rate::cpu.data         0.880014                       # miss rate for demand accesses
system.l2.demand_miss_rate::total            0.882763                       # miss rate for demand accesses
system.l2.overall_miss_rate::cpu.inst        0.887762                       # miss rate for overall accesses
system.l2.overall_miss_rate::cpu.data        0.880014                       # miss rate for overall accesses
system.l2.overall_miss_rate::total           0.882763                       # miss rate for overall accesses
system.l2.ReadExReq_avg_miss_latency::cpu.data 82437.629938                       # average ReadExReq miss latency
system.l2.ReadExReq_avg_miss_latency::total 82437.629938                       # average ReadExReq miss latency
system.l2.ReadCleanReq_avg_miss_latency::cpu.inst 84929.285714                       # average ReadCleanReq miss latency
system.l2.ReadCleanReq_avg_miss_latency::total 84929.285714                       # average ReadCleanReq miss latency
system.l2.ReadSharedReq_avg_miss_latency::cpu.data 82653.036239                       # average ReadSharedReq miss latency
system.l2.ReadSharedReq_avg_miss_latency::total 82653.036239                       # average ReadSharedReq miss latency
system.l2.demand_avg_miss_latency::cpu.inst 84929.285714                       # average overall miss latency
system.l2.demand_avg_miss_latency::cpu.data 82611.969877                       # average overall miss latency
system.l2.demand_avg_miss_latency::total 83438.949783                       # average overall miss latency
system.l2.overall_avg_miss_latency::cpu.inst 84929.285714                       # average overall miss latency
system.l2.overall_avg_miss_latency::cpu.data 82611.969877                       # average overall miss latency
system.l2.overall_avg_miss_latency::total 83438.949783                       # average overall miss latency
system.l2.blocked_cycles::no_mshrs                  0                       # number of cycles access was blocked
system.l2.blocked_cycles::no_targets                0                       # number of cycles access was blocked
system.l2.blocked::no_mshrs                         0                       # number of cycles access was blocked
system.l2.blocked::no_targets                       0                       # number of cycles access was blocked
system.l2.avg_blocked_cycles::no_mshrs            nan                       # average number of cycles each access was blocked
system.l2.avg_blocked_cycles::no_targets          nan                       # average number of cycles each access was blocked
system.l2.ReadSharedReq_mshr_hits::cpu.data            1                       # number of ReadSharedReq MSHR hits
system.l2.ReadSharedReq_mshr_hits::total            1                       # number of ReadSharedReq MSHR hits
system.l2.demand_mshr_hits::cpu.data                1                       # number of demand (read+write) MSHR hits
system.l2.demand_mshr_hits::total                   1                       # number of demand (read+write) MSHR hits
system.l2.overall_mshr_hits::cpu.data               1                       # number of overall MSHR hits
system.l2.overall_mshr_hits::total                  1                       # number of overall MSHR hits
system.l2.ReadExReq_mshr_misses::cpu.data          481                       # number of ReadExReq MSHR misses
system.l2.ReadExReq_mshr_misses::total            481                       # number of ReadExReq MSHR misses
system.l2.ReadCleanReq_mshr_misses::cpu.inst         1400                       # number of ReadCleanReq MSHR misses
system.l2.ReadCleanReq_mshr_misses::total         1400                       # number of ReadCleanReq MSHR misses
system.l2.ReadSharedReq_mshr_misses::cpu.data         2041                       # number of ReadSharedReq MSHR misses
system.l2.ReadSharedReq_mshr_misses::total         2041                       # number of ReadSharedReq MSHR misses
system.l2.demand_mshr_misses::cpu.inst           1400                       # number of demand (read+write) MSHR misses
system.l2.demand_mshr_misses::cpu.data           2522                       # number of demand (read+write) MSHR misses
system.l2.demand_mshr_misses::total              3922                       # number of demand (read+write) MSHR misses
system.l2.overall_mshr_misses::cpu.inst          1400                       # number of overall MSHR misses
system.l2.overall_mshr_misses::cpu.data          2522                       # number of overall MSHR misses
system.l2.overall_mshr_misses::total             3922                       # number of overall MSHR misses
system.l2.ReadExReq_mshr_miss_latency::cpu.data     34842500                       # number of ReadExReq MSHR miss cycles
system.l2.ReadExReq_mshr_miss_latency::total     34842500                       # number of ReadExReq MSHR miss cycles
system.l2.ReadCleanReq_mshr_miss_latency::cpu.inst    104911000                       # number of ReadCleanReq MSHR miss cycles
system.l2.ReadCleanReq_mshr_miss_latency::total    104911000                       # number of ReadCleanReq MSHR miss cycles
system.l2.ReadSharedReq_mshr_miss_latency::cpu.data    148294000                       # number of ReadSharedReq MSHR miss cycles
system.l2.ReadSharedReq_mshr_miss_latency::total    148294000                       # number of ReadSharedReq MSHR miss cycles
system.l2.demand_mshr_miss_latency::cpu.inst    104911000                       # number of demand (read+write) MSHR miss cycles
system.l2.demand_mshr_miss_latency::cpu.data    183136500                       # number of demand (read+write) MSHR miss cycles
system.l2.demand_mshr_miss_latency::total    288047500                       # number of demand (read+write) MSHR miss cycles
system.l2.overall_mshr_miss_latency::cpu.inst    104911000                       # number of overall MSHR miss cycles
system.l2.overall_mshr_miss_latency::cpu.data    183136500                       # number of overall MSHR miss cycles
system.l2.overall_mshr_miss_latency::total    288047500                       # number of overall MSHR miss cycles
system.l2.ReadExReq_mshr_miss_rate::cpu.data     0.958167                       # mshr miss rate for ReadExReq accesses
system.l2.ReadExReq_mshr_miss_rate::total     0.958167                       # mshr miss rate for ReadExReq accesses
system.l2.ReadCleanReq_mshr_miss_rate::cpu.inst     0.887762                       # mshr miss rate for ReadCleanReq accesses
system.l2.ReadCleanReq_mshr_miss_rate::total     0.887762                       # mshr miss rate for ReadCleanReq accesses
system.l2.ReadSharedReq_mshr_miss_rate::cpu.data     0.863002                       # mshr miss rate for ReadSharedReq accesses
system.l2.ReadSharedReq_mshr_miss_rate::total     0.863002                       # mshr miss rate for ReadSharedReq accesses
system.l2.demand_mshr_miss_rate::cpu.inst     0.887762                       # mshr miss rate for demand accesses
system.l2.demand_mshr_miss_rate::cpu.data     0.879665                       # mshr miss rate for demand accesses
system.l2.demand_mshr_miss_rate::total       0.882538                       # mshr miss rate for demand accesses
system.l2.overall_mshr_miss_rate::cpu.inst     0.887762                       # mshr miss rate for overall accesses
system.l2.overall_mshr_miss_rate::cpu.data     0.879665                       # mshr miss rate for overall accesses
system.l2.overall_mshr_miss_rate::total      0.882538                       # mshr miss rate for overall accesses
system.l2.ReadExReq_avg_mshr_miss_latency::cpu.data 72437.629938                       # average ReadExReq mshr miss latency
system.l2.ReadExReq_avg_mshr_miss_latency::total 72437.629938                       # average ReadExReq mshr miss latency
system.l2.ReadCleanReq_avg_mshr_miss_latency::cpu.inst 74936.428571                       # average ReadCleanReq mshr miss latency
system.l2.ReadCleanReq_avg_mshr_miss_latency::total 74936.428571                       # average ReadCleanReq mshr miss latency
system.l2.ReadSharedReq_avg_mshr_miss_latency::cpu.data 72657.520823                       # average ReadSharedReq mshr miss latency
system.l2.ReadSharedReq_avg_mshr_miss_latency::total 72657.520823                       # average ReadSharedReq mshr miss latency
system.l2.demand_avg_mshr_miss_latency::cpu.inst 74936.428571                       # average overall mshr miss latency
system.l2.demand_avg_mshr_miss_latency::cpu.data 72615.582871                       # average overall mshr miss latency
system.l2.demand_avg_mshr_miss_latency::total 73444.033656                       # average overall mshr miss latency
system.l2.overall_avg_mshr_miss_latency::cpu.inst 74936.428571                       # average overall mshr miss latency
system.l2.overall_avg_mshr_miss_latency::cpu.data 72615.582871                       # average overall mshr miss latency
system.l2.overall_avg_mshr_miss_latency::total 73444.033656                       # average overall mshr miss latency
system.membus.snoop_filter.tot_requests          3921                       # Total number of requests made to the snoop filter.
system.membus.snoop_filter.hit_single_requests            0                       # Number of requests hitting in the snoop filter with a single holder of the requested data.
system.membus.snoop_filter.hit_multi_requests            0                       # Number of requests hitting in the snoop filter with multiple (>1) holders of the requested data.
system.membus.snoop_filter.tot_snoops               0                       # Total number of snoops made to the snoop filter.
system.membus.snoop_filter.hit_single_snoops            0                       # Number of snoops hitting in the snoop filter with a single holder of the requested data.
system.membus.snoop_filter.hit_multi_snoops            0                       # Number of snoops hitting in the snoop filter with multiple (>1) holders of the requested data.
system.membus.pwrStateResidencyTicks::UNDEFINED   3832884000                       # Cumulative time (in ticks) in various power states
system.membus.trans_dist::ReadResp               3440                       # Transaction distribution
system.membus.trans_dist::ReadExReq               481                       # Transaction distribution
system.membus.trans_dist::ReadExResp              481                       # Transaction distribution
system.membus.trans_dist::ReadSharedReq          3440                       # Transaction distribution
system.membus.pkt_count_system.l2.mem_side::system.mem_ctrls.port         7842                       # Packet count per connected master and slave (bytes)
system.membus.pkt_count_system.l2.mem_side::total         7842                       # Packet count per connected master and slave (bytes)
system.membus.pkt_count::total                   7842                       # Packet count per connected master and slave (bytes)
system.membus.pkt_size_system.l2.mem_side::system.mem_ctrls.port       250944                       # Cumulative packet size per connected master and slave (bytes)
system.membus.pkt_size_system.l2.mem_side::total       250944                       # Cumulative packet size per connected master and slave (bytes)
system.membus.pkt_size::total                  250944                       # Cumulative packet size per connected master and slave (bytes)
system.membus.snoops                                0                       # Total snoops (count)
system.membus.snoopTraffic                          0                       # Total snoop traffic (bytes)
system.membus.snoop_fanout::samples              3921                       # Request fanout histogram
system.membus.snoop_fanout::mean                    0                       # Request fanout histogram
system.membus.snoop_fanout::stdev                   0                       # Request fanout histogram
system.membus.snoop_fanout::underflows              0      0.00%      0.00% # Request fanout histogram
system.membus.snoop_fanout::0                    3921    100.00%    100.00% # Request fanout histogram
system.membus.snoop_fanout::1                       0      0.00%    100.00% # Request fanout histogram
system.membus.snoop_fanout::overflows               0      0.00%    100.00% # Request fanout histogram
system.membus.snoop_fanout::min_value               0                       # Request fanout histogram
system.membus.snoop_fanout::max_value               0                       # Request fanout histogram
system.membus.snoop_fanout::total                3921                       # Request fanout histogram
system.membus.reqLayer2.occupancy             4776500                       # Layer occupancy (ticks)
system.membus.reqLayer2.utilization               0.1                       # Layer utilization (%)
system.membus.respLayer1.occupancy           20730250                       # Layer occupancy (ticks)
system.membus.respLayer1.utilization              0.5                       # Layer utilization (%)
system.tol2bus.snoop_filter.tot_requests         7352                       # Total number of requests made to the snoop filter.
system.tol2bus.snoop_filter.hit_single_requests         2912                       # Number of requests hitting in the snoop filter with a single holder of the requested data.
system.tol2bus.snoop_filter.hit_multi_requests           15                       # Number of requests hitting in the snoop filter with multiple (>1) holders of the requested data.
system.tol2bus.snoop_filter.tot_snoops              0                       # Total number of snoops made to the snoop filter.
system.tol2bus.snoop_filter.hit_single_snoops            0                       # Number of snoops hitting in the snoop filter with a single holder of the requested data.
system.tol2bus.snoop_filter.hit_multi_snoops            0                       # Number of snoops hitting in the snoop filter with multiple (>1) holders of the requested data.
system.tol2bus.pwrStateResidencyTicks::UNDEFINED   3832884000                       # Cumulative time (in ticks) in various power states
system.tol2bus.trans_dist::ReadResp              3941                       # Transaction distribution
system.tol2bus.trans_dist::WritebackDirty          586                       # Transaction distribution
system.tol2bus.trans_dist::WritebackClean         1065                       # Transaction distribution
system.tol2bus.trans_dist::CleanEvict            1257                       # Transaction distribution
system.tol2bus.trans_dist::ReadExReq              502                       # Transaction distribution
system.tol2bus.trans_dist::ReadExResp             502                       # Transaction distribution
system.tol2bus.trans_dist::ReadCleanReq          1577                       # Transaction distribution
system.tol2bus.trans_dist::ReadSharedReq         2365                       # Transaction distribution
system.tol2bus.pkt_count_system.cpu.icache.mem_side::system.l2.cpu_side         4218                       # Packet count per connected master and slave (bytes)
system.tol2bus.pkt_count_system.cpu.dcache.mem_side::system.l2.cpu_side         7577                       # Packet count per connected master and slave (bytes)
system.tol2bus.pkt_count::total                 11795                       # Packet count per connected master and slave (bytes)
system.tol2bus.pkt_size_system.cpu.icache.mem_side::system.l2.cpu_side       169024                       # Cumulative packet size per connected master and slave (bytes)
system.tol2bus.pkt_size_system.cpu.dcache.mem_side::system.l2.cpu_side       220992                       # Cumulative packet size per connected master and slave (bytes)
system.tol2bus.pkt_size::total                 390016                       # Cumulative packet size per connected master and slave (bytes)
system.tol2bus.snoops                               0                       # Total snoops (count)
system.tol2bus.snoopTraffic                         0                       # Total snoop traffic (bytes)
system.tol2bus.snoop_fanout::samples             4444                       # Request fanout histogram
system.tol2bus.snoop_fanout::mean            0.004275                       # Request fanout histogram
system.tol2bus.snoop_fanout::stdev           0.065254                       # Request fanout histogram
system.tol2bus.snoop_fanout::underflows             0      0.00%      0.00% # Request fanout histogram
system.tol2bus.snoop_fanout::0                   4425     99.57%     99.57% # Request fanout histogram
system.tol2bus.snoop_fanout::1                     19      0.43%    100.00% # Request fanout histogram
system.tol2bus.snoop_fanout::2                      0      0.00%    100.00% # Request fanout histogram
system.tol2bus.snoop_fanout::3                      0      0.00%    100.00% # Request fanout histogram
system.tol2bus.snoop_fanout::4                      0      0.00%    100.00% # Request fanout histogram
system.tol2bus.snoop_fanout::overflows              0      0.00%    100.00% # Request fanout histogram
system.tol2bus.snoop_fanout::min_value              0                       # Request fanout histogram
system.tol2bus.snoop_fanout::max_value              1                       # Request fanout histogram
system.tol2bus.snoop_fanout::total               4444                       # Request fanout histogram
system.tol2bus.reqLayer0.occupancy            5327000                       # Layer occupancy (ticks)
system.tol2bus.reqLayer0.utilization              0.1                       # Layer utilization (%)
system.tol2bus.respLayer0.occupancy           2364499                       # Layer occupancy (ticks)
system.tol2bus.respLayer0.utilization             0.1                       # Layer utilization (%)
system.tol2bus.respLayer1.occupancy           4300999                       # Layer occupancy (ticks)
system.tol2bus.respLayer1.utilization             0.1                       # Layer utilization (%)

---------- End Simulation Statistics   ----------
